# generated using pymatgen
data_CuAu
_symmetry_space_group_name_H-M   Imma
_cell_length_a   3.66287600
_cell_length_b   4.04627000
_cell_length_c   40.50448800
_cell_angle_alpha   90.00000000
_cell_angle_beta   90.00000000
_cell_angle_gamma   90.00000000
_symmetry_Int_Tables_number   74
_chemical_formula_structural   CuAu
_chemical_formula_sum   'Cu20 Au20'
_cell_volume   600.31642012
_cell_formula_units_Z   20
loop_
 _symmetry_equiv_pos_site_id
 _symmetry_equiv_pos_as_xyz
  1  'x, y, z'
  2  '-x, -y, -z'
  3  '-x, -y+1/2, z'
  4  'x, y+1/2, -z'
  5  'x, -y, -z'
  6  '-x, y, z'
  7  '-x, y+1/2, -z'
  8  'x, -y+1/2, z'
  9  'x+1/2, y+1/2, z+1/2'
  10  '-x+1/2, -y+1/2, -z+1/2'
  11  '-x+1/2, -y, z+1/2'
  12  'x+1/2, y, -z+1/2'
  13  'x+1/2, -y+1/2, -z+1/2'
  14  '-x+1/2, y+1/2, z+1/2'
  15  '-x+1/2, y, -z+1/2'
  16  'x+1/2, -y, z+1/2'
loop_
 _atom_site_type_symbol
 _atom_site_label
 _atom_site_symmetry_multiplicity
 _atom_site_fract_x
 _atom_site_fract_y
 _atom_site_fract_z
 _atom_site_occupancy
  Cu  Cu0  4  0.00000000  0.25000000  0.02509400  1
  Cu  Cu1  4  0.00000000  0.25000000  0.12483200  1
  Cu  Cu2  4  0.00000000  0.25000000  0.22693000  1
  Cu  Cu3  4  0.00000000  0.25000000  0.82511500  1
  Cu  Cu4  4  0.00000000  0.25000000  0.92551500  1
  #Au  Au5  4  0.00000000  0.25000000  0.32543200  1
  #Au  Au6  4  0.00000000  0.25000000  0.42520500  1
  #Au  Au7  4  0.00000000  0.25000000  0.52460600  1
  #Au  Au8  4  0.00000000  0.25000000  0.62413900  1
  #Au  Au9  4  0.00000000  0.25000000  0.72331500  1
